Version 4.1
SHEET 1 880 680
WIRE -304 -80 -480 -80
WIRE 0 -80 -304 -80
WIRE 352 -80 256 -80
WIRE 432 -80 352 -80
WIRE 560 -80 432 -80
WIRE 432 -48 432 -80
WIRE -480 -16 -480 -80
WIRE -304 -16 -304 -80
WIRE 432 32 432 16
WIRE 560 32 432 32
WIRE 560 48 560 32
WIRE -304 96 -304 48
WIRE 128 112 128 16
WIRE 208 112 128 112
WIRE 352 112 352 -80
WIRE 352 112 288 112
WIRE 128 192 128 112
WIRE 128 192 -128 192
WIRE -144 224 -128 192
WIRE -192 240 -320 240
WIRE -128 352 -144 304
WIRE -48 352 -128 352
WIRE 80 352 32 352
WIRE 432 352 432 32
WIRE 432 352 160 352
WIRE -480 368 -480 64
WIRE -320 368 -320 320
WIRE -320 368 -480 368
WIRE -192 368 -192 288
WIRE -192 368 -320 368
WIRE -320 400 -320 368
FLAG -304 96 0
FLAG -320 400 0
FLAG 560 48 0
SYMBOL voltage -480 -32 R0
WINDOW 123 0 0 Left 0
WINDOW 39 0 0 Left 0
SYMATTR InstName V1
SYMATTR Value 10
SYMBOL PowerProducts\\LT317A 128 -80 R0
SYMATTR InstName U1
SYMBOL cap -320 -16 R0
SYMATTR InstName C1
SYMATTR Value 0.1”
SYMBOL res 304 96 R90
WINDOW 0 0 56 VBottom 2
WINDOW 3 32 56 VTop 2
SYMATTR InstName R1
SYMATTR Value 240
SYMBOL res 48 336 R90
WINDOW 0 0 56 VBottom 2
WINDOW 3 32 56 VTop 2
SYMATTR InstName R2
SYMATTR Value 30
SYMBOL res 176 336 R90
WINDOW 0 0 56 VBottom 2
WINDOW 3 32 56 VTop 2
SYMATTR InstName R3
SYMATTR Value 18
SYMBOL voltage -320 224 R0
WINDOW 3 -5 295 Invisible 2
WINDOW 123 0 0 Left 0
WINDOW 39 0 0 Left 0
SYMATTR Value PULSE(0 1 0 1n 1n 1m 2m)
SYMATTR InstName V2
SYMBOL sw -144 320 M180
SYMATTR InstName S1
SYMATTR Value sw_1
SYMBOL cap 416 -48 R0
SYMATTR InstName C2
SYMATTR Value 1”
TEXT -328 568 Left 2 !.tran 10m
TEXT -328 536 Left 2 !.model sw_1 SW(Ron=0.01 Roff=1Meg Vt=0.5 Vh=0)
